TEST_BIS_Power_elem_kVA.txt

CIRCUIT ELEMENT POWER FLOW

(Power Flow into element from indicated Bus)

Power Delivery Elements

  Bus Phase     kW     +j   kvar         kVA         PF

ELEMENT = "Vsource.SOURCE"
100      1       -53.3 +j    -36.7       64.7       0.8240
100      2       -53.3 +j    -36.7       64.7       0.8240
100      3       -53.3 +j    -36.7       64.7       0.8240
   TERMINAL TOTAL  -160.0 +j   -110.0      194.2       0.8240
100      0         0.0 +j      0.0        0.0       1.0000
100      0         0.0 +j      0.0        0.0       1.0000
100      0         0.0 +j      0.0        0.0       1.0000
   TERMINAL TOTAL     0.0 +j      0.0        0.0       1.0000

= = = = = = = = = = = = = = = = = = =  = = = = = = = = = = =  = =

Power Conversion Elements

  Bus Phase     kW   +j  kvar         kVA         PF

ELEMENT = "Load.L1"
100      1      53.3 +j   36.7       64.7       0.8240
100      2      53.3 +j   36.7       64.7       0.8240
100      3      53.3 +j   36.7       64.7       0.8240
100      0       0.0 +j    0.0        0.0       1.0000
  TERMINAL TOTAL    160.0 +j    110.0      194.2       0.8240


Total Circuit Losses =    0.0 +j    0.0
